18        
Created by MolAligner
C             -2.41100000    -1.49800000     0.12400000
C             -3.78900000    -2.18400000     0.11700000
H             -2.42100000    -0.57200000    -0.48400000
H             -1.63200000    -2.18400000    -0.27200000
H             -2.13200000    -1.19700000     1.15500000
C             -4.21600000    -2.61400000    -1.30700000
H             -4.54500000    -1.47000000     0.51400000
C             -3.77500000    -3.42100000     1.03700000
H             -3.04500000    -4.18000000     0.66900000
H             -4.77300000    -3.91000000     1.02600000
O             -3.49600000    -3.05600000     2.36400000
C             -4.38900000    -1.44300000    -2.27600000
H             -5.19900000    -3.13000000    -1.24100000
H             -3.47700000    -3.33000000    -1.72800000
H             -5.13800000    -0.72400000    -1.88300000
H             -4.74700000    -1.82700000    -3.25500000
H             -3.42900000    -0.91700000    -2.45400000
H             -2.52800000    -3.21300000     2.51300000
