18        

C       -0.6935    -0.9256    -0.9472
C        0.1638     0.2148    -0.3694
H       -1.7746    -0.7095    -0.8379
H       -0.4616    -1.8848    -0.4369
H       -0.5023    -1.0432    -2.0340
C       -0.0798     0.4135     1.1460
H       -0.0961     1.1594    -0.8976
C        1.6604    -0.0672    -0.6093
H        1.9779    -0.9969    -0.0809
H        2.2717     0.7605    -0.1892
O        1.9417    -0.1475    -1.9828
C       -1.5121     0.8272     1.4886
H        0.5891     1.2247     1.5085
H        0.1736    -0.5170     1.6992
H       -1.7796     1.7662     0.9602
H       -1.5915     1.0021     2.5827
H       -2.2394     0.0332     1.2232
H        1.9523    -1.1098    -2.2232
18        

C       -0.7617    -1.1760     0.5214
C        0.3802    -0.2269     0.1155
H       -1.2244    -1.6495    -0.3668
H       -1.5430    -0.6258     1.0880
H       -0.3748    -2.0010     1.1547
C       -0.1202     0.9358    -0.7749
H        1.1413    -0.8072    -0.4529
C        1.0643     0.3533     1.3693
H        0.3461     0.9640     1.9655
H        1.8869     1.0370     1.0673
O        1.6272    -0.6681     2.1515
C       -0.7037     0.4774    -2.1127
H        0.7409     1.6006    -1.0059
H       -0.8827     1.5339    -0.2299
H        0.0490    -0.1069    -2.6823
H       -0.9883     1.3678    -2.7129
H       -1.6170    -0.1353    -1.9697
H        0.9799    -0.8730     2.8746
18        

C        0.8763     0.6512     1.0213
C       -0.1836    -0.2373     0.3455
H        0.5415     1.7060     1.0728
H        1.8375     0.6020     0.4664
H        1.0496     0.3224     2.0669
C       -0.4572     0.1946    -1.1152
H       -1.1328    -0.1616     0.9219
C        0.2657    -1.7120     0.3621
H        1.2063    -1.8460    -0.2225
H       -0.5047    -2.3461    -0.1275
O        0.4212    -2.1741     1.6790
C       -1.0340     1.6059    -1.2403
H       -1.2032    -0.5023    -1.5564
H        0.4763     0.1273    -1.7151
H       -1.9784     1.6897    -0.6628
H       -1.2524     1.8194    -2.3084
H       -0.3146     2.3723    -0.8865
H        1.3864    -2.1114     1.8987
18        

C        1.2711     0.3637     0.6979
C        0.1729     0.2074    -0.3694
H        1.8008    -0.5936     0.8714
H        0.8352     0.7165     1.6570
H        2.0371     1.0935     0.3633
C       -0.9128    -0.8085     0.0595
H        0.6414    -0.1509    -1.3134
C       -0.4917     1.5686    -0.6559
H       -0.9961     1.9631     0.2575
H       -1.2828     1.4468    -1.4270
O        0.4452     2.4899    -1.1513
C       -0.3830    -2.2315     0.2457
H       -1.6903    -0.8519    -0.7346
H       -1.3989    -0.4738     1.0017
H        0.0907    -2.5928    -0.6911
H       -1.2278    -2.9071     0.4984
H        0.3497    -2.2873     1.0763
H        0.7394     3.0479    -0.3859
18        

C       -1.4614    -0.2504     0.1910
C       -0.0482    -0.1852    -0.4157
H       -1.9356     0.7506     0.2115
H       -1.4236    -0.6555     1.2248
H       -2.1186    -0.8997    -0.4238
C        0.8977     0.7173     0.4124
H       -0.1212     0.2282    -1.4465
C        0.5575    -1.5995    -0.5131
H        0.6718    -2.0521     0.5001
H        1.5772    -1.5433    -0.9517
O       -0.2183    -2.4211    -1.3468
C        0.4582     2.1816     0.4660
H        1.9062     0.6970    -0.0561
H        0.9898     0.3257     1.4488
H        0.3780     2.5985    -0.5598
H        1.2132     2.7706     1.0292
H       -0.5131     2.2959     0.9889
H       -0.8096    -2.9586    -0.7593
18        

C        0.3922     1.1231    -0.9054
C        0.4424    -0.0301     0.1130
H       -0.0470     2.0357    -0.4565
H       -0.2062     0.8319    -1.7949
H        1.4162     1.3942    -1.2362
C       -0.9690    -0.4334     0.6030
H        1.0436     0.2955     0.9913
C        1.1346    -1.2605    -0.5064
H        0.5574    -1.6405    -1.3822
H        1.1664    -2.0879     0.2350
O        2.4587    -0.9626    -0.8669
C       -1.7003     0.6812     1.3532
H       -0.8682    -1.2882     1.3073
H       -1.5920    -0.7647    -0.2562
H       -1.1031     1.0145     2.2276
H       -2.6774     0.2982     1.7175
H       -1.9062     1.5486     0.6934
H        2.4580    -0.7550    -1.8368
18        

C       -0.3666     1.3700     0.4730
C        0.3252     0.2011    -0.2514
H       -0.0842     1.4015     1.5438
H       -1.4709     1.2805     0.3912
H       -0.0527     2.3396     0.0340
C       -0.0839    -1.1703     0.3375
H        1.4271     0.3183    -0.1464
C       -0.0141     0.2284    -1.7551
H       -1.1095     0.0930    -1.9164
H        0.4890    -0.6183    -2.2701
O        0.4395     1.4167    -2.3501
C        0.3249    -1.3571     1.7997
H        0.4208    -1.9710    -0.2465
H       -1.1824    -1.3142     0.2444
H        1.4227    -1.2359     1.9123
H        0.0463    -2.3804     2.1305
H       -0.1968    -0.6376     2.4632
H       -0.3343     2.0357    -2.3937
18        

C       -1.3803     0.4254     0.3856
C        0.1470     0.2350     0.3641
H       -1.8948    -0.4973     0.7191
H       -1.7526     0.7044    -0.6232
H       -1.6624     1.2227     1.1041
C        0.5796    -0.8747    -0.6241
H        0.4857    -0.0478     1.3860
C        0.8450     1.5551    -0.0193
H        0.5541     1.8725    -1.0483
H        1.9467     1.4087    -0.0325
O        0.5621     2.5624     0.9174
C        0.0463    -2.2619    -0.2613
H        1.6898    -0.9409    -0.6180
H        0.2540    -0.6167    -1.6553
H        0.3761    -2.5476     0.7594
H        0.4431    -3.0075    -0.9829
H       -1.0607    -2.2994    -0.3166
H       -0.1787     3.1074     0.5457
18        

C        0.8589    -0.7055    -0.9998
C        0.3405     0.3029     0.0414
H        0.3538    -0.5690    -1.9763
H        0.6954    -1.7469    -0.6489
H        1.9434    -0.5549    -1.1802
C       -1.1723     0.1275     0.3161
H        0.5147     1.3331    -0.3423
C        1.1167     0.1514     1.3648
H        0.9577    -0.8619     1.8034
H        0.7363     0.8826     2.1104
O        2.4841     0.4098     1.1767
C       -2.0526     0.3855    -0.9081
H       -1.4774     0.8588     1.0965
H       -1.3749    -0.8952     0.7022
H       -1.8795     1.4100    -1.2992
H       -3.1209     0.2937    -0.6176
H       -1.8597    -0.3546    -1.7112
H        2.9356    -0.4672     1.0721
18        

C       -1.1708     0.3426    -0.8642
C       -0.2083    -0.3994     0.0805
H       -0.7817     0.3588    -1.9013
H       -1.3280     1.3868    -0.5190
H       -2.1526    -0.1732    -0.9022
C        1.1761     0.2882     0.1557
H       -0.0691    -1.4378    -0.2955
C       -0.8096    -0.4841     1.4976
H       -0.9499     0.5347     1.9298
H       -0.1086    -1.0208     2.1728
O       -2.0190    -1.1978     1.4875
C        1.9236     0.3109    -1.1788
H        1.8115    -0.2734     0.8753
H        1.0663     1.3291     0.5303
H        2.0608    -0.7218    -1.5622
H        2.9247     0.7691    -1.0306
H        1.3866     0.9183    -1.9356
H       -2.7521    -0.5302     1.4597
